Circuit: * C:\Users\gerar\Desktop\UVG\10semestre\DiseñoInnovacion\PROTOTIPO1\XTR111-LTspice-Model-master\Draft1.asc

Direct Newton iteration for .op point succeeded.

Date: Fri Sep  8 10:17:30 2023
Total elapsed time: 0.033 seconds.

tnom = 27
temp = 27
method = trap
totiter = 3
traniter = 0
tranpoints = 0
accept = 0
rejected = 0
matrix size = 5
fillins = 0
solver = Normal
Avg thread counts: 12.0/0.0/12.0/12.0
Matrix Compiler1: 132 bytes object code size
Matrix Compiler2: 301 bytes object code size
